*******************************************************
* Taiwan Semiconductor
* SS14
* 1A, 40V Schottky Barrier Rectifier
* Date: 2023-05-04
*******************************************************
.MODEL SS14 D
+ IS=21.205E-9
+ N=.79397
+ RS=69.395E-3
+ IKF=184.68
+ CJO=193.71E-12
+ M=.50208
+ VJ=.49536
+ ISR=735.70E-9
+ NR=4.0874
+ BV=40
+ IBV=2E-4
+ TT=19.730E-9

*******************************************************